ipss.test.dev/testData/psse/07C.raw
0,    100.00, 30 / PSS(tm)E-30 RAW created by rawd30  SUN, MAR 27 2011  22:49
PSS/E LOADFLOW RAW FILE
CONVERTED FROM BPA FORMAT
     1,'ANSH-HLZ    ', 525.0000,1,     0.000,  1151.000,   1,   1,1.00000,   0.0000,   1
     2,'EQG029      ',  20.0000,2,   530.000,  -140.000,   1,   2,1.04900,   0.0000,   2
     3,'ANSHHLZ1    ', 525.0000,1,     0.000,     0.000,   1,   1,1.00000,   0.0000,   1
     4,'BEIJIAO1    ', 230.0000,1,     0.000,     0.000,   1,   1,1.00000,   0.0000,   1
     5,'BEIJIAO     ', 230.0000,2,   865.000,     0.000,   1,   1,0.96600,   0.0000,   1
     6,'GD-HLZ      ', 525.0000,1,     0.000,     0.000,   1,   1,1.00000,   0.0000,   1
     7,'GD01-HLZ    ', 525.0000,1,     0.000,     0.000,   1,   1,1.00000,   0.0000,   1
     8,'ZENGD0H     ', 525.0000,2,     0.000,  3000.000,   1,   3,0.99400,   0.0000,   1
     9,'HUIZ-HLZ    ', 525.0000,1,     0.000,  1650.000,   1,   1,1.00000,   0.0000,   1
    10,'HUIZHLZ1    ', 525.0000,1,     0.000,     0.000,   1,   1,1.00000,   0.0000,   1
    11,'TSQD-M1     ', 230.0000,1,     0.000,     0.000,   1,   1,1.00000,   0.0000,   1
    12,'XREN-HLZ    ', 525.0000,2,     0.000,  2006.000,   1,   1,1.02300,   0.0000,   1
    13,'EQG027      ',  24.0000,2,     0.000,  -747.000,   1,   2,1.00500,   0.0000,   2
    14,'XRENHLZ1    ', 525.0000,1,     0.000,     0.000,   1,   1,1.02600,   0.0000,   1
    15,'YN01-HLZ    ', 525.0000,1,     0.000,  2095.000,   1,   1,1.00000,   0.0000,   1
    16,'YN01HLZ1    ', 525.0000,1,     0.000,     0.000,   1,   1,1.00000,   0.0000,   1
    17,'ZQ-HLZ1     ', 525.0000,1,     0.000,     0.000,   1,   1,1.00000,   0.0000,   1
    18,'ZQ-HLZ      ', 525.0000,2,     0.000,     0.000,   1,   1,1.00100,   0.0000,   1
    19,'EQG001      ',  20.0000,2,  2561.000,  -999.000,   1,   3,1.00000,   0.0000,   1
    20,'GUANGN0H    ', 525.0000,2,   780.000,   626.000,   1,   3,0.99900,   0.0000,   1
    21,'HEY50H      ', 525.0000,2,    68.400,   297.000,   1,   3,1.01000,   0.0000,   1
    22,'HUADU0H     ', 525.0000,2,   184.000,   977.000,   1,   3,0.99400,   0.0000,   1
    23,'HUIZ0H      ', 525.0000,2,  1141.000,  1517.000,   1,   3,1.00200,   0.0000,   1
    24,'JIANGM0H    ', 525.0000,2,   259.000,   280.000,   1,   3,0.99700,   0.0000,   1
    25,'QINGY50H    ', 525.0000,2,     0.000,   399.000,   1,   3,1.00200,   0.0000,   1
    26,'SHAJ50P     ', 525.0000,2,     0.000,   -65.000,   1,   3,1.00000,   0.0000,   1
    27,'BAIHD0H     ', 525.0000,2,   586.000,   571.000,   1,   1,0.99100,   0.0000,   1
    28,'BEIJ0H      ', 525.0000,2,     4.220,   -92.000,   1,   3,0.98800,   0.0000,   1
    29,'BOLUO0H     ', 525.0000,1,   170.000,   521.000,   1,   3,1.00000,   0.0000,   1
    30,'DAYW50P     ', 525.0000,1,   -65.000,    69.600,   1,   3,1.00000,   0.0000,   1
    31,'DONGG0H     ', 525.0000,1,   799.000,   180.000,   1,   3,1.00000,   0.0000,   1
    32,'DONGG20H    ', 525.0000,1,  1186.000,   959.000,   1,   3,1.00000,   0.0000,   1
    33,'GAOM0H      ', 525.0000,2,   323.000,   412.000,   1,   3,0.99100,   0.0000,   1
    34,'GAOME0H     ', 525.0000,2,   159.000,    71.800,   1,   3,1.00100,   0.0000,   1
    35,'HONGM0H     ', 525.0000,1,   641.000,   338.000,   1,   3,1.00000,   0.0000,   1
    36,'HUICH50H    ', 525.0000,1,   211.000,  -110.000,   1,   3,1.00000,   0.0000,   1
    37,'HUIZXN0P    ', 525.0000,1,     0.000,     0.000,   1,   3,1.00000,   0.0000,   1
    38,'KAIP0H      ', 525.0000,1,    79.000,   198.000,   1,   3,1.00000,   0.0000,   1
    39,'LONGG0H     ', 525.0000,1,    83.200,   965.000,   1,   3,1.00000,   0.0000,   1
    40,'LUODO0H     ', 525.0000,2,   733.000,   288.000,   1,   3,0.98400,   0.0000,   1
    41,'MAOM0H      ', 525.0000,1,   -61.000,  1586.000,   1,   3,1.00600,   0.0000,   1
    42,'MEIZH0H     ', 525.0000,1,   503.000,  1380.000,   1,   3,1.00000,   0.0000,   1
    43,'NANSHA0H    ', 525.0000,1,   414.000,   266.000,   1,   3,1.00000,   0.0000,   1
    44,'PENGC0H     ', 525.0000,1,   668.000,   585.000,   1,   3,1.00000,   0.0000,   1
    45,'SANX50H     ', 525.0000,1,  -552.000,  1272.000,   1,   3,1.00000,   0.0000,   1
    46,'SHENZ0H     ', 525.0000,1,   855.000,  1168.000,   1,   3,1.00000,   0.0000,   1
    47,'SHIPAI0H    ', 525.0000,1,   607.000,   413.000,   1,   3,1.00000,   0.0000,   1
    48,'SHUNDE0H    ', 525.0000,1,   801.000,   659.000,   1,   3,1.00000,   0.0000,   1
    49,'XINHUI0H    ', 525.0000,1,   132.000,   841.000,   1,   3,1.00000,   0.0000,   1
    50,'XUNENG1P    ', 525.0000,1,     0.000,     0.000,   1,   3,1.00000,   0.0000,   1
    51,'YANGJ50H    ', 525.0000,2,   819.000,   625.000,   1,   3,0.99900,   0.0000,   1
    52,'ZENGC0H     ', 525.0000,1,   284.000,   626.000,   1,   3,1.00000,   0.0000,   1
    53,'ZHAOQ0H     ', 525.0000,2,   437.000,   771.000,   1,   3,1.00000,   0.0000,   1
    54,'ZHONGS0H    ', 525.0000,1,   730.000,   308.000,   1,   3,1.00000,   0.0000,   1
    55,'EQG013      ',  18.0000,2,     0.000,     0.000,   1,   3,1.00000,   0.0000,   1
    56,'EQG007      ',  15.0000,2,   321.000,  -501.000,   1,   3,1.00000,   0.0000,   1
    57,'EQG004      ',  26.0000,2,  2093.000,  -530.000,   1,   3,1.00600,   0.0000,   1
    58,'EQG010      ',  18.0000,2,     0.000,     0.000,   1,   3,1.00000,   0.0000,   1
    59,'EQG011      ',  20.0000,2,   220.000,  -592.000,   1,   3,1.00000,   0.0000,   1
    60,'EQG015      ',  13.8000,2,   294.000,  -289.000,   1,   3,0.99400,   0.0000,   1
    61,'EQG016      ',  26.0000,2,   782.000,  -981.000,   1,   3,1.00000,   0.0000,   1
    62,'EQG018      ',  13.8000,2,   199.000,  -265.000,   1,   3,1.00000,   0.0000,   1
    63,'EQG019      ',  20.0000,2,   513.000,  -336.000,   1,   3,1.01000,   0.0000,   1
    64,'EQG020      ',  20.0000,2,   829.000,  -803.000,   1,   3,1.00000,   0.0000,   1
    65,'EQG021      ',  26.0000,2,   522.000,  -984.000,   1,   3,1.00000,   0.0000,   1
    66,'EQG023      ',  20.0000,2,   260.000,  -632.000,   1,   3,1.00500,   0.0000,   1
    67,'EQG022      ',  15.8000,2,   560.000,  -635.000,   1,   3,1.00200,   0.0000,   1
    68,'EQG024      ',  20.0000,2,   436.000,  -923.000,   1,   3,1.00000,   0.0000,   1
    69,'EQG028      ',  22.0000,2,  1360.000,  -999.000,   1,   3,1.00000,   0.0000,   1
    70,'BS-H        ', 525.0000,1,   159.000,  -510.000,   1,   4,1.02400,   0.0000,   1
    71,'EQG002      ',  13.5000,2,   121.000,  -207.000,   1,   4,0.98500,   0.0000,   1
    72,'WZ-H        ', 525.0000,2,   158.000,   178.000,   1,   4,0.99100,   0.0000,   1
    73,'HZ-H        ', 525.0000,2,   102.000,   295.000,   1,   4,0.98400,   0.0000,   1
    74,'EQG003      ',  10.5000,2,    75.500,   -48.000,   1,   4,1.00000,   0.0000,   1
    75,'DUSHAN-H    ', 525.0000,2,   174.000,   204.000,   1,   4,1.01700,   0.0000,   1
    76,'EQG006      ',  18.0000,2,   219.000,    12.800,   1,   4,0.99900,   0.0000,   1
    77,'GG-H        ', 525.0000,2,   150.000,   234.000,   1,   4,1.01500,   0.0000,   1
    78,'GG1S        ',  18.0000,3,     0.000,     0.000,   1,   4,1.04000,   0.0000,   1
    79,'EQG017      ',  18.0000,2,     0.000,     0.000,   1,   4,1.00800,   0.0000,   1
    80,'GL-H        ', 525.0000,2,   198.000,   247.000,   1,   4,0.99200,   0.0000,   1
    81,'HC-H        ', 525.0000,2,    85.500,     0.000,   1,   4,1.01500,   0.0000,   1
    82,'EQG012      ',  10.5000,2,   187.000,    12.500,   1,   4,1.00000,   0.0000,   1
    83,'KGZ         ', 525.0000,1,     0.000,  -191.000,   1,   4,1.00000,   0.0000,   1
    84,'LB-H        ', 525.0000,2,   498.000,   497.000,   1,   4,1.01200,   0.0000,   1
    85,'EQG014      ',  13.8000,2,  -302.000,  -386.000,   1,   4,1.00700,   0.0000,   1
    86,'LD-H        ', 525.0000,2,   131.000,   201.000,   1,   4,0.99600,   0.0000,   1
    87,'YT-5G       ', 525.0000,2,     0.000,    50.100,   1,   4,1.02600,   0.0000,   1
    88,'LT-5G       ', 525.0000,2,     0.000,  -128.000,   1,   4,1.02700,   0.0000,   1
    89,'NN-H        ', 525.0000,2,   679.000,   623.000,   1,   4,1.00700,   0.0000,   1
    90,'PG-H        ', 525.0000,2,   168.000,   -76.000,   1,   4,1.01500,   0.0000,   1
    91,'PG2-H       ', 525.0000,1,   172.000,    29.800,   1,   4,1.01400,   0.0000,   1
    92,'SC-BS1      ', 525.0000,1,     0.000,     0.000,   1,   4,1.00000,   0.0000,   1
    93,'SC-BS2      ', 525.0000,1,     0.000,     0.000,   1,   4,1.00000,   0.0000,   1
    94,'SC-BST      ', 525.0000,1,     0.000,     0.000,   1,   4,1.00000,   0.0000,   1
    95,'SC-HC1      ', 525.0000,1,     0.000,     0.000,   1,   4,1.00000,   0.0000,   1
    96,'SC-HC2      ', 525.0000,1,     0.000,     0.000,   1,   4,1.00000,   0.0000,   1
    97,'SC-PG1      ', 525.0000,1,     0.000,     0.000,   1,   4,1.00000,   0.0000,   1
    98,'SC-PG2      ', 525.0000,1,     0.000,     0.000,   1,   4,1.00000,   0.0000,   1
    99,'ST-H        ', 525.0000,2,   320.000,  -123.000,   1,   4,0.99200,   0.0000,   1
   100,'EQG025      ',  18.0000,2,   328.000,   -54.000,   1,   4,1.01700,   0.0000,   1
   101,'TSQD-H      ', 525.0000,2,     0.000,     0.000,   1,   4,1.02600,   0.0000,   1
   102,'TSQD-M      ', 230.0000,2,     0.000,  1334.000,   1,   1,1.03100,   0.0000,   1
   103,'TSQB-H      ', 525.0000,2,     0.000,   -55.000,   1,   4,1.02600,   0.0000,   1
   104,'EQG026      ',  18.0000,2,     0.000,  -762.000,   1,   4,1.02000,   0.0000,   1
   105,'YL-H        ', 525.0000,2,   760.000,   485.000,   1,   4,0.99900,   0.0000,   1
   106,'BAHE-KAI    ', 525.0000,1,     0.000,   540.000,   1,   2,1.00000,   0.0000,   2
   107,'EQG005      ',  24.0000,2,     0.000,  -477.000,   1,   2,1.00000,   0.0000,   2
   108,'EQG009      ',  20.0000,2,   600.000,   -48.000,   1,   2,0.98900,   0.0000,   2
   109,'GUIY        ', 525.0000,2,  -531.000,   707.000,   1,   2,1.02200,   0.0000,   2
   110,'HUISHUI     ', 525.0000,2,   356.000,  -195.000,   1,   2,1.01900,   0.0000,   2
   111,'LIPING      ', 525.0000,2,    97.400,   -43.000,   1,   2,0.98900,   0.0000,   2
   112,'QDONG       ', 525.0000,2,   435.000,  1128.000,   1,   2,1.01900,   0.0000,   2
   113,'QDONG3      ', 525.0000,2,   118.000,   341.000,   1,   2,0.99000,   0.0000,   2
   114,'XINREN      ', 525.0000,2,   211.000,    27.600,   1,   2,1.02100,   0.0000,   2
   115,'EQG031      ',  15.8000,2,   353.000,  -395.000,   1,   2,1.00500,   0.0000,   2
   116,'KAIGUAN     ', 525.0000,2,  -329.000,   700.000,   1,   2,1.02700,   0.0000,   2
   117,'EQG035      ',  20.0000,2,   749.000,  -754.000,   1,   2,0.99700,   0.0000,   2
   118,'EQG030      ',  20.0000,2,   303.000,  -601.000,   1,   5,0.99700,   0.0000,   3
   119,'EQG036      ',  10.5000,2,   300.000,   -29.000,   1,   5,1.01700,   0.0000,   3
   120,'EQG039      ',  20.0000,2,   395.000,   -22.000,   1,   5,1.01000,   0.0000,   3
   121,'BAOFENGG    ', 525.0000,1,   879.000,  -481.000,   1,   6,1.02000,   0.0000,   3
   122,'CAOPUG      ', 525.0000,1,   790.000,  -523.000,   1,   6,1.00000,   0.0000,   3
   123,'CHANGKG     ', 525.0000,2,  1007.000,  -183.000,   1,   6,1.01800,   0.0000,   3
   124,'DIANXIG     ', 525.0000,1,   393.000,   379.000,   1,   6,1.00000,   0.0000,   3
   125,'HONGHEG     ', 525.0000,2,   442.000,   329.000,   1,   6,1.02200,   0.0000,   3
   126,'EQG032      ',  18.0000,2,     0.000,     0.000,   1,   6,1.00000,   0.0000,   3
   127,'JINGANQG    ', 525.0000,1,     0.000,  -382.000,   1,   6,1.03200,   0.0000,   3
   128,'EQG033      ',  18.0000,2,     0.000,   908.000,   1,   6,1.00900,   0.0000,   3
   129,'LIXIANJG    ', 525.0000,2,   160.000,  1770.000,   1,   6,1.02800,   0.0000,   3
   130,'EQG034      ',  15.8000,2,     0.000,   -80.000,   1,   6,0.99900,   0.0000,   3
   131,'DACS500G    ', 525.0000,1,     0.000,  -162.000,   1,   6,1.00000,   0.0000,   3
   132,'MANW500G    ', 525.0000,2,    25.000,  -108.000,   1,   7,1.03200,   0.0000,   3
   133,'KUNXIBG     ', 525.0000,2,   351.000,  -207.000,   1,   6,1.01300,   0.0000,   3
   134,'LUOPINGG    ', 525.0000,1,    49.700,     0.000,   1,   6,1.00000,   0.0000,   3
   135,'QIDIANG     ', 525.0000,2,  1002.000,  -292.000,   1,   6,1.02000,   0.0000,   3
   136,'QUJINGBG    ', 525.0000,1,   407.000,   295.000,   1,   6,1.00000,   0.0000,   3
   137,'WENSHANG    ', 525.0000,2,   200.000,   304.000,   1,   6,1.03400,   0.0000,   3
   138,'EQG037      ',  20.0000,2,     0.000,     0.000,   1,   6,1.00000,   0.0000,   3
   139,'XIAOWANG    ', 525.0000,2,     0.000,  -328.000,   1,   6,1.02900,   0.0000,   3
   140,'EQG038      ',  10.5000,2,   -44.000,   188.000,   1,   6,1.02300,   0.0000,   3
   141,'YUXIG       ', 525.0000,1,   428.000,  -117.000,   1,   6,1.00000,   0.0000,   3
0 / END OF BUS DATA, BEGIN LOAD DATA
     2,'1 ',1,   1,   2,   700.000,   442.600,     0.000,     0.000,     0.000,     0.000,   2
     3,'1 ',1,   1,   1,  3001.000,  1557.000,     0.000,     0.000,     0.000,     0.000,   1
     4,'1 ',1,   1,   1, -1686.000,   927.200,     0.000,     0.000,     0.000,     0.000,   1
     5,'1 ',1,   1,   1,  1849.000,   467.300,     0.000,     0.000,     0.000,     0.000,   1
     6,'1 ',1,   1,   1, -2794.000,  1603.000,     0.000,     0.000,     0.000,     0.000,   1
     7,'1 ',1,   1,   1, -4781.000,  2914.000,     0.000,     0.000,     0.000,     0.000,   1
    10,'1 ',1,   1,   1, -2821.000,  1603.000,     0.000,     0.000,     0.000,     0.000,   1
    11,'1 ',1,   1,   1,  1802.000,   917.000,     0.000,     0.000,     0.000,     0.000,   1
    13,'1 ',1,   1,   2,   144.000,    72.000,     0.000,     0.000,     0.000,     0.000,   2
    14,'1 ',1,   1,   1,  3001.000,  1557.000,     0.000,     0.000,     0.000,     0.000,   1
    16,'1 ',1,   1,   1,  5001.000,  2749.000,     0.000,     0.000,     0.000,     0.000,   1
    17,'1 ',1,   1,   1, -2835.000,  1619.000,     0.000,     0.000,     0.000,     0.000,   1
    19,'1 ',1,   1,   3,  1047.000,   391.600,     0.000,     0.000,     0.000,     0.000,   1
    20,'1 ',1,   1,   3,  1232.000,   501.900,     0.000,     0.000,     0.000,     0.000,   1
    21,'1 ',1,   1,   3,   193.700,    41.690,     0.000,     0.000,     0.000,     0.000,   1
    22,'1 ',1,   1,   3,   965.900,   224.600,     0.000,     0.000,     0.000,     0.000,   1
    23,'1 ',1,   1,   3,  1020.000,   300.500,     0.000,     0.000,     0.000,     0.000,   1
    24,'1 ',1,   1,   3,   570.200,   194.000,     0.000,     0.000,     0.000,     0.000,   1
    25,'1 ',1,   1,   3,     0.000,    56.280,     0.000,     0.000,     0.000,     0.000,   1
    27,'1 ',1,   1,   1,  1418.000,   522.100,     0.000,     0.000,     0.000,     0.000,   1
    28,'1 ',1,   1,   3,     8.914,     3.193,     0.000,     0.000,     0.000,     0.000,   1
    29,'1 ',1,   1,   3,   488.300,   128.000,     0.000,     0.000,     0.000,     0.000,   1
    30,'1 ',1,   1,   3,   561.200,   190.000,     0.000,     0.000,     0.000,     0.000,   1
    31,'1 ',1,   1,   3,  1661.000,   711.500,     0.000,     0.000,     0.000,     0.000,   1
    32,'1 ',1,   1,   3,  1881.000,   718.100,     0.000,     0.000,     0.000,     0.000,   1
    33,'1 ',1,   1,   3,   796.500,   254.700,     0.000,     0.000,     0.000,     0.000,   1
    34,'1 ',1,   1,   3,   366.700,   121.100,     0.000,     0.000,     0.000,     0.000,   1
    35,'1 ',1,   1,   3,  1341.000,   475.300,     0.000,     0.000,     0.000,     0.000,   1
    36,'1 ',1,   1,   3,   454.000,   147.800,     0.000,     0.000,     0.000,     0.000,   1
    38,'1 ',1,   1,   3,   251.800,   102.300,     0.000,     0.000,     0.000,     0.000,   1
    39,'1 ',1,   1,   3,   843.100,   307.400,     0.000,     0.000,     0.000,     0.000,   1
    40,'1 ',1,   1,   3,  1465.000,   638.700,     0.000,     0.000,     0.000,     0.000,   1
    41,'1 ',1,   1,   3,   636.200,   157.600,     0.000,     0.000,     0.000,     0.000,   1
    42,'1 ',1,   1,   3,   918.400,   291.900,     0.000,     0.000,     0.000,     0.000,   1
    43,'1 ',1,   1,   3,   687.500,   260.100,     0.000,     0.000,     0.000,     0.000,   1
    44,'1 ',1,   1,   3,  1410.000,   533.600,     0.000,     0.000,     0.000,     0.000,   1
    45,'1 ',1,   1,   3,  1142.000,   262.800,     0.000,     0.000,     0.000,     0.000,   1
    46,'1 ',1,   1,   3,  1781.000,   588.800,     0.000,     0.000,     0.000,     0.000,   1
    47,'1 ',1,   1,   3,  1351.000,   428.000,     0.000,     0.000,     0.000,     0.000,   1
    48,'1 ',1,   1,   3,  1351.000,   509.100,     0.000,     0.000,     0.000,     0.000,   1
    49,'1 ',1,   1,   3,   582.500,   172.300,     0.000,     0.000,     0.000,     0.000,   1
    51,'1 ',1,   1,   3,   525.600,   161.100,     0.000,     0.000,     0.000,     0.000,   1
    52,'1 ',1,   1,   3,  1105.000,   392.200,     0.000,     0.000,     0.000,     0.000,   1
    53,'1 ',1,   1,   3,   985.200,   350.000,     0.000,     0.000,     0.000,     0.000,   1
    54,'1 ',1,   1,   3,  1131.000,   379.200,     0.000,     0.000,     0.000,     0.000,   1
    55,'1 ',1,   1,   3,    12.000,     8.000,     0.000,     0.000,     0.000,     0.000,   1
    56,'1 ',1,   1,   3,   658.500,   256.200,     0.000,     0.000,     0.000,     0.000,   1
    57,'1 ',1,   1,   3,  2488.000,  1059.000,     0.000,     0.000,     0.000,     0.000,   1
    58,'1 ',1,   1,   3,    15.000,    10.000,     0.000,     0.000,     0.000,     0.000,   1
    59,'1 ',1,   1,   3,   442.500,   172.300,     0.000,     0.000,     0.000,     0.000,   1
    60,'1 ',1,   1,   3,   258.200,   150.200,     0.000,     0.000,     0.000,     0.000,   1
    61,'1 ',1,   1,   3,   599.700,   284.700,     0.000,     0.000,     0.000,     0.000,   1
    62,'1 ',1,   1,   3,   432.500,   177.200,     0.000,     0.000,     0.000,     0.000,   1
    63,'1 ',1,   1,   3,   818.600,   401.900,     0.000,     0.000,     0.000,     0.000,   1
    64,'1 ',1,   1,   3,  1768.000,   688.600,     0.000,     0.000,     0.000,     0.000,   1
    65,'1 ',1,   1,   3,  3076.000,  1526.000,     0.000,     0.000,     0.000,     0.000,   1
    66,'1 ',1,   1,   3,  1394.000,   683.000,     0.000,     0.000,     0.000,     0.000,   1
    67,'1 ',1,   1,   3,  1524.000,   597.800,     0.000,     0.000,     0.000,     0.000,   1
    68,'1 ',1,   1,   3,   649.900,   245.500,     0.000,     0.000,     0.000,     0.000,   1
    69,'1 ',1,   1,   3,  1761.000,   684.500,     0.000,     0.000,     0.000,     0.000,   1
    70,'1 ',1,   1,   4,   361.600,   252.800,     0.000,     0.000,     0.000,     0.000,   1
    71,'1 ',1,   1,   4,   234.400,   139.200,     0.000,     0.000,     0.000,     0.000,   1
    72,'1 ',1,   1,   4,   335.400,   123.400,     0.000,     0.000,     0.000,     0.000,   1
    73,'1 ',1,   1,   4,   237.000,   109.600,     0.000,     0.000,     0.000,     0.000,   1
    74,'1 ',1,   1,   4,   152.800,    79.420,     0.000,     0.000,     0.000,     0.000,   1
    75,'1 ',1,   1,   4,   404.500,   146.600,     0.000,     0.000,     0.000,     0.000,   1
    76,'1 ',1,   1,   4,  1212.000,   873.900,     0.000,     0.000,     0.000,     0.000,   1
    77,'1 ',1,   1,   4,   180.100,   129.900,     0.000,     0.000,     0.000,     0.000,   1
    78,'1 ',1,   1,   4,    42.840,   150.000,     0.000,     0.000,     0.000,     0.000,   1
    80,'1 ',1,   1,   4,   322.900,   191.400,     0.000,     0.000,     0.000,     0.000,   1
    81,'1 ',1,   1,   4,   340.500,   125.600,     0.000,     0.000,     0.000,     0.000,   1
    82,'1 ',1,   1,   4,   481.100,   239.900,     0.000,     0.000,     0.000,     0.000,   1
    84,'1 ',1,   1,   4,   161.200,   103.900,     0.000,     0.000,     0.000,     0.000,   1
    85,'1 ',1,   1,   4,   464.200,   181.000,     0.000,     0.000,     0.000,     0.000,   1
    86,'1 ',1,   1,   4,   316.400,   138.700,     0.000,     0.000,     0.000,     0.000,   1
    89,'1 ',1,   1,   4,  1096.000,   560.100,     0.000,     0.000,     0.000,     0.000,   1
    90,'1 ',1,   1,   4,   352.500,   174.900,     0.000,     0.000,     0.000,     0.000,   1
    91,'1 ',1,   1,   4,   400.100,   203.800,     0.000,     0.000,     0.000,     0.000,   1
    99,'1 ',1,   1,   4,   678.400,   318.400,     0.000,     0.000,     0.000,     0.000,   1
   100,'1 ',1,   1,   4,   314.900,   263.900,     0.000,     0.000,     0.000,     0.000,   1
   101,'1 ',1,   1,   4,    80.000,     0.000,     0.000,     0.000,     0.000,     0.000,   1
   102,'1 ',1,   1,   1,    35.000,    23.430,     0.000,     0.000,     0.000,     0.000,   1
   103,'1 ',1,   1,   4,     0.000,    14.710,     0.000,     0.000,     0.000,     0.000,   1
   104,'1 ',1,   1,   4,     0.000,    31.230,     0.000,     0.000,     0.000,     0.000,   1
   105,'1 ',1,   1,   4,   769.200,   399.700,     0.000,     0.000,     0.000,     0.000,   1
   107,'1 ',1,   1,   2,   104.000,    52.000,     0.000,     0.000,     0.000,     0.000,   2
   108,'1 ',1,   1,   2,   546.200,   423.900,     0.000,     0.000,     0.000,     0.000,   2
   109,'1 ',1,   1,   2,   973.100,   323.800,     0.000,     0.000,     0.000,     0.000,   2
   110,'1 ',1,   1,   2,   468.400,   181.100,     0.000,     0.000,     0.000,     0.000,   2
   111,'1 ',1,   1,   2,   209.300,    94.400,     0.000,     0.000,     0.000,     0.000,   2
   112,'1 ',1,   1,   2,   800.000,   237.700,     0.000,     0.000,     0.000,     0.000,   2
   113,'1 ',1,   1,   2,   800.000,   588.300,     0.000,     0.000,     0.000,     0.000,   2
   114,'1 ',1,   1,   2,   378.300,   251.600,     0.000,     0.000,     0.000,     0.000,   2
   115,'1 ',1,   1,   2,   593.900,   327.100,     0.000,     0.000,     0.000,     0.000,   2
   116,'1 ',1,   1,   2,   710.100,   299.800,     0.000,     0.000,     0.000,     0.000,   2
   117,'1 ',1,   1,   2,  1036.000,   771.700,     0.000,     0.000,     0.000,     0.000,   2
   118,'1 ',1,   1,   5,    95.330,    49.140,     0.000,     0.000,     0.000,     0.000,   3
   119,'1 ',1,   1,   5,   779.200,   781.000,     0.000,     0.000,     0.000,     0.000,   3
   120,'1 ',1,   1,   5,   551.100,   562.000,     0.000,     0.000,     0.000,     0.000,   3
   121,'1 ',1,   1,   6,    87.290,    81.360,     0.000,     0.000,     0.000,     0.000,   3
   122,'1 ',1,   1,   6,   144.800,   126.800,     0.000,     0.000,     0.000,     0.000,   3
   123,'1 ',1,   1,   6,    98.400,    83.350,     0.000,     0.000,     0.000,     0.000,   3
   124,'1 ',1,   1,   6,   267.800,   110.400,     0.000,     0.000,     0.000,     0.000,   3
   125,'1 ',1,   1,   6,   618.300,   489.500,     0.000,     0.000,     0.000,     0.000,   3
   128,'1 ',1,   1,   6,   228.100,   158.400,     0.000,     0.000,     0.000,     0.000,   3
   129,'1 ',1,   1,   6,    86.340,    17.240,     0.000,     0.000,     0.000,     0.000,   3
   130,'1 ',1,   1,   6,    36.040,    19.410,     0.000,     0.000,     0.000,     0.000,   3
   131,'1 ',1,   1,   6,    16.770,     4.730,     0.000,     0.000,     0.000,     0.000,   3
   132,'1 ',1,   1,   7,    14.700,     6.917,     0.000,     0.000,     0.000,     0.000,   3
   133,'1 ',1,   1,   6,   164.400,   141.500,     0.000,     0.000,     0.000,     0.000,   3
   134,'1 ',1,   1,   6,    82.500,    59.010,     0.000,     0.000,     0.000,     0.000,   3
   135,'1 ',1,   1,   6,    27.680,    19.430,     0.000,     0.000,     0.000,     0.000,   3
   136,'1 ',1,   1,   6,   315.600,   255.000,     0.000,     0.000,     0.000,     0.000,   3
   137,'1 ',1,   1,   6,   338.200,   243.500,     0.000,     0.000,     0.000,     0.000,   3
   140,'1 ',1,   1,   6,   296.400,   294.500,     0.000,     0.000,     0.000,     0.000,   3
   141,'1 ',1,   1,   6,   156.300,   120.000,     0.000,     0.000,     0.000,     0.000,   3
0 / END OF LOAD DATA, BEGIN GENERATOR DATA
     2,'1 ',  3570.000,     0.000,  9999.000, -9999.000,1.04900,     0,   100.000,   0.00000,   1.00000,   0.00000,   0.00000,1.00000,1,  100.0,     0.000,     0.000,   1,1.0000,   0,0.0000,   0,0.0000,   0,0.0000
     5,'1 ',     0.000,     0.000,  9999.000, -9999.000,0.96600,     0,   100.000,   0.00000,   1.00000,   0.00000,   0.00000,1.00000,1,  100.0,     0.000,     0.000,   1,1.0000,   0,0.0000,   0,0.0000,   0,0.0000
     8,'1 ',     0.000,     0.000,  9999.000, -9999.000,0.99400,     0,   100.000,   0.00000,   1.00000,   0.00000,   0.00000,1.00000,1,  100.0,     0.000,     0.000,   1,1.0000,   0,0.0000,   0,0.0000,   0,0.0000
    12,'1 ',     0.000,     0.000,  9999.000, -9999.000,1.02300,     0,   100.000,   0.00000,   1.00000,   0.00000,   0.00000,1.00000,1,  100.0,     0.000,     0.000,   1,1.0000,   0,0.0000,   0,0.0000,   0,0.0000
    13,'1 ',  3350.000,     0.000,  9999.000, -9999.000,1.00500,     0,   100.000,   0.00000,   1.00000,   0.00000,   0.00000,1.00000,1,  100.0,     0.000,     0.000,   1,1.0000,   0,0.0000,   0,0.0000,   0,0.0000
    18,'1 ',     0.000,     0.000,  9999.000, -9999.000,1.00100,     0,   100.000,   0.00000,   1.00000,   0.00000,   0.00000,1.00000,1,  100.0,     0.000,     0.000,   1,1.0000,   0,0.0000,   0,0.0000,   0,0.0000
    19,'1 ',  6325.000,     0.000,  9999.000, -9999.000,1.00000,     0,   100.000,   0.00000,   1.00000,   0.00000,   0.00000,1.00000,1,  100.0,     0.000,     0.000,   1,1.0000,   0,0.0000,   0,0.0000,   0,0.0000
    20,'1 ',     0.000,     0.000,  9999.000, -9999.000,0.99900,     0,   100.000,   0.00000,   1.00000,   0.00000,   0.00000,1.00000,1,  100.0,     0.000,     0.000,   1,1.0000,   0,0.0000,   0,0.0000,   0,0.0000
    21,'1 ',     0.000,     0.000,  9999.000, -9999.000,1.01000,     0,   100.000,   0.00000,   1.00000,   0.00000,   0.00000,1.00000,1,  100.0,     0.000,     0.000,   1,1.0000,   0,0.0000,   0,0.0000,   0,0.0000
    22,'1 ',     0.000,     0.000,  9999.000, -9999.000,0.99400,     0,   100.000,   0.00000,   1.00000,   0.00000,   0.00000,1.00000,1,  100.0,     0.000,     0.000,   1,1.0000,   0,0.0000,   0,0.0000,   0,0.0000
    23,'1 ',     0.000,     0.000,  9999.000, -9999.000,1.00200,     0,   100.000,   0.00000,   1.00000,   0.00000,   0.00000,1.00000,1,  100.0,     0.000,     0.000,   1,1.0000,   0,0.0000,   0,0.0000,   0,0.0000
    24,'1 ',     0.000,     0.000,  9999.000, -9999.000,0.99700,     0,   100.000,   0.00000,   1.00000,   0.00000,   0.00000,1.00000,1,  100.0,     0.000,     0.000,   1,1.0000,   0,0.0000,   0,0.0000,   0,0.0000
    25,'1 ',     0.000,     0.000,  9999.000, -9999.000,1.00200,     0,   100.000,   0.00000,   1.00000,   0.00000,   0.00000,1.00000,1,  100.0,     0.000,     0.000,   1,1.0000,   0,0.0000,   0,0.0000,   0,0.0000
    26,'1 ',     0.000,     0.000,  9999.000, -9999.000,1.00000,     0,   100.000,   0.00000,   1.00000,   0.00000,   0.00000,1.00000,1,  100.0,     0.000,     0.000,   1,1.0000,   0,0.0000,   0,0.0000,   0,0.0000
    27,'1 ',     0.000,     0.000,  9999.000, -9999.000,0.99100,     0,   100.000,   0.00000,   1.00000,   0.00000,   0.00000,1.00000,1,  100.0,     0.000,     0.000,   1,1.0000,   0,0.0000,   0,0.0000,   0,0.0000
    28,'1 ',     0.000,     0.000,  9999.000, -9999.000,0.98800,     0,   100.000,   0.00000,   1.00000,   0.00000,   0.00000,1.00000,1,  100.0,     0.000,     0.000,   1,1.0000,   0,0.0000,   0,0.0000,   0,0.0000
    33,'1 ',     0.000,     0.000,  9999.000, -9999.000,0.99100,     0,   100.000,   0.00000,   1.00000,   0.00000,   0.00000,1.00000,1,  100.0,     0.000,     0.000,   1,1.0000,   0,0.0000,   0,0.0000,   0,0.0000
    34,'1 ',     0.000,     0.000,  9999.000, -9999.000,1.00100,     0,   100.000,   0.00000,   1.00000,   0.00000,   0.00000,1.00000,1,  100.0,     0.000,     0.000,   1,1.0000,   0,0.0000,   0,0.0000,   0,0.0000
    40,'1 ',     0.000,     0.000,  9999.000, -9999.000,0.98400,     0,   100.000,   0.00000,   1.00000,   0.00000,   0.00000,1.00000,1,  100.0,     0.000,     0.000,   1,1.0000,   0,0.0000,   0,0.0000,   0,0.0000
    51,'1 ',     0.000,     0.000,  9999.000, -9999.000,0.99900,     0,   100.000,   0.00000,   1.00000,   0.00000,   0.00000,1.00000,1,  100.0,     0.000,     0.000,   1,1.0000,   0,0.0000,   0,0.0000,   0,0.0000
    53,'1 ',     0.000,     0.000,  9999.000, -9999.000,1.00000,     0,   100.000,   0.00000,   1.00000,   0.00000,   0.00000,1.00000,1,  100.0,     0.000,     0.000,   1,1.0000,   0,0.0000,   0,0.0000,   0,0.0000
    55,'1 ',  1084.000,     0.000,  9999.000, -9999.000,1.00000,     0,   100.000,   0.00000,   1.00000,   0.00000,   0.00000,1.00000,1,  100.0,     0.000,     0.000,   1,1.0000,   0,0.0000,   0,0.0000,   0,0.0000
    56,'1 ',  1194.000,     0.000,  9999.000, -9999.000,1.00000,     0,   100.000,   0.00000,   1.00000,   0.00000,   0.00000,1.00000,1,  100.0,     0.000,     0.000,   1,1.0000,   0,0.0000,   0,0.0000,   0,0.0000
    57,'1 ',  5764.000,     0.000,  9999.000, -9999.000,1.00600,     0,   100.000,   0.00000,   1.00000,   0.00000,   0.00000,1.00000,1,  100.0,     0.000,     0.000,   1,1.0000,   0,0.0000,   0,0.0000,   0,0.0000
    58,'1 ',  1355.000,     0.000,  9999.000, -9999.000,1.00000,     0,   100.000,   0.00000,   1.00000,   0.00000,   0.00000,1.00000,1,  100.0,     0.000,     0.000,   1,1.0000,   0,0.0000,   0,0.0000,   0,0.0000
    59,'1 ',  1488.000,     0.000,  9999.000, -9999.000,1.00000,     0,   100.000,   0.00000,   1.00000,   0.00000,   0.00000,1.00000,1,  100.0,     0.000,     0.000,   1,1.0000,   0,0.0000,   0,0.0000,   0,0.0000
    60,'1 ',   842.000,     0.000,  9999.000, -9999.000,0.99400,     0,   100.000,   0.00000,   1.00000,   0.00000,   0.00000,1.00000,1,  100.0,     0.000,     0.000,   1,1.0000,   0,0.0000,   0,0.0000,   0,0.0000
    61,'1 ',  2931.000,     0.000,  9999.000, -9999.000,1.00000,     0,   100.000,   0.00000,   1.00000,   0.00000,   0.00000,1.00000,1,  100.0,     0.000,     0.000,   1,1.0000,   0,0.0000,   0,0.0000,   0,0.0000
    62,'1 ',   714.000,     0.000,  9999.000, -9999.000,1.00000,     0,   100.000,   0.00000,   1.00000,   0.00000,   0.00000,1.00000,1,  100.0,     0.000,     0.000,   1,1.0000,   0,0.0000,   0,0.0000,   0,0.0000
    63,'1 ',  3968.000,     0.000,  9999.000, -9999.000,1.01000,     0,   100.000,   0.00000,   1.00000,   0.00000,   0.00000,1.00000,1,  100.0,     0.000,     0.000,   1,1.0000,   0,0.0000,   0,0.0000,   0,0.0000
    64,'1 ',  2632.000,     0.000,  9999.000, -9999.000,1.00000,     0,   100.000,   0.00000,   1.00000,   0.00000,   0.00000,1.00000,1,  100.0,     0.000,     0.000,   1,1.0000,   0,0.0000,   0,0.0000,   0,0.0000
    65,'1 ',  8144.000,     0.000,  9999.000, -9999.000,1.00000,     0,   100.000,   0.00000,   1.00000,   0.00000,   0.00000,1.00000,1,  100.0,     0.000,     0.000,   1,1.0000,   0,0.0000,   0,0.0000,   0,0.0000
    66,'1 ',  4819.000,     0.000,  9999.000, -9999.000,1.00500,     0,   100.000,   0.00000,   1.00000,   0.00000,   0.00000,1.00000,1,  100.0,     0.000,     0.000,   1,1.0000,   0,0.0000,   0,0.0000,   0,0.0000
    67,'1 ',  2288.000,     0.000,  9999.000, -9999.000,1.00200,     0,   100.000,   0.00000,   1.00000,   0.00000,   0.00000,1.00000,1,  100.0,     0.000,     0.000,   1,1.0000,   0,0.0000,   0,0.0000,   0,0.0000
    68,'1 ',  2987.000,     0.000,  9999.000, -9999.000,1.00000,     0,   100.000,   0.00000,   1.00000,   0.00000,   0.00000,1.00000,1,  100.0,     0.000,     0.000,   1,1.0000,   0,0.0000,   0,0.0000,   0,0.0000
    69,'1 ',  4859.000,     0.000,  9999.000, -9999.000,1.00000,     0,   100.000,   0.00000,   1.00000,   0.00000,   0.00000,1.00000,1,  100.0,     0.000,     0.000,   1,1.0000,   0,0.0000,   0,0.0000,   0,0.0000
    71,'1 ',   634.000,     0.000,  9999.000, -9999.000,0.98500,     0,   100.000,   0.00000,   1.00000,   0.00000,   0.00000,1.00000,1,  100.0,     0.000,     0.000,   1,1.0000,   0,0.0000,   0,0.0000,   0,0.0000
    72,'1 ',     0.000,     0.000,  9999.000, -9999.000,0.99100,     0,   100.000,   0.00000,   1.00000,   0.00000,   0.00000,1.00000,1,  100.0,     0.000,     0.000,   1,1.0000,   0,0.0000,   0,0.0000,   0,0.0000
    73,'1 ',     0.000,     0.000,  9999.000, -9999.000,0.98400,     0,   100.000,   0.00000,   1.00000,   0.00000,   0.00000,1.00000,1,  100.0,     0.000,     0.000,   1,1.0000,   0,0.0000,   0,0.0000,   0,0.0000
    74,'1 ',   570.000,     0.000,  9999.000, -9999.000,1.00000,     0,   100.000,   0.00000,   1.00000,   0.00000,   0.00000,1.00000,1,  100.0,     0.000,     0.000,   1,1.0000,   0,0.0000,   0,0.0000,   0,0.0000
    75,'1 ',     0.000,     0.000,  9999.000, -9999.000,1.01700,     0,   100.000,   0.00000,   1.00000,   0.00000,   0.00000,1.00000,1,  100.0,     0.000,     0.000,   1,1.0000,   0,0.0000,   0,0.0000,   0,0.0000
    76,'1 ',  2674.000,     0.000,  9999.000, -9999.000,0.99900,     0,   100.000,   0.00000,   1.00000,   0.00000,   0.00000,1.00000,1,  100.0,     0.000,     0.000,   1,1.0000,   0,0.0000,   0,0.0000,   0,0.0000
    77,'1 ',     0.000,     0.000,  9999.000, -9999.000,1.01500,     0,   100.000,   0.00000,   1.00000,   0.00000,   0.00000,1.00000,1,  100.0,     0.000,     0.000,   1,1.0000,   0,0.0000,   0,0.0000,   0,0.0000
    78,'1 ',   480.200,     0.000,   300.000,     0.000,1.04000,     0,   100.000,   0.00000,   1.00000,   0.00000,   0.00000,1.00000,1,  100.0,     0.000,     0.000,   1,1.0000,   0,0.0000,   0,0.0000,   0,0.0000
    79,'1 ',  6008.000,     0.000,  9999.000, -9999.000,1.00800,     0,   100.000,   0.00000,   1.00000,   0.00000,   0.00000,1.00000,1,  100.0,     0.000,     0.000,   1,1.0000,   0,0.0000,   0,0.0000,   0,0.0000
    80,'1 ',     0.000,     0.000,  9999.000, -9999.000,0.99200,     0,   100.000,   0.00000,   1.00000,   0.00000,   0.00000,1.00000,1,  100.0,     0.000,     0.000,   1,1.0000,   0,0.0000,   0,0.0000,   0,0.0000
    81,'1 ',     0.000,     0.000,  9999.000, -9999.000,1.01500,     0,   100.000,   0.00000,   1.00000,   0.00000,   0.00000,1.00000,1,  100.0,     0.000,     0.000,   1,1.0000,   0,0.0000,   0,0.0000,   0,0.0000
    82,'1 ',   704.000,     0.000,  9999.000, -9999.000,1.00000,     0,   100.000,   0.00000,   1.00000,   0.00000,   0.00000,1.00000,1,  100.0,     0.000,     0.000,   1,1.0000,   0,0.0000,   0,0.0000,   0,0.0000
    84,'1 ',     0.000,     0.000,  9999.000, -9999.000,1.01200,     0,   100.000,   0.00000,   1.00000,   0.00000,   0.00000,1.00000,1,  100.0,     0.000,     0.000,   1,1.0000,   0,0.0000,   0,0.0000,   0,0.0000
    85,'1 ',  1831.000,     0.000,  9999.000, -9999.000,1.00700,     0,   100.000,   0.00000,   1.00000,   0.00000,   0.00000,1.00000,1,  100.0,     0.000,     0.000,   1,1.0000,   0,0.0000,   0,0.0000,   0,0.0000
    86,'1 ',     0.000,     0.000,  9999.000, -9999.000,0.99600,     0,   100.000,   0.00000,   1.00000,   0.00000,   0.00000,1.00000,1,  100.0,     0.000,     0.000,   1,1.0000,   0,0.0000,   0,0.0000,   0,0.0000
    87,'1 ',     0.000,     0.000,  9999.000, -9999.000,1.02600,     0,   100.000,   0.00000,   1.00000,   0.00000,   0.00000,1.00000,1,  100.0,     0.000,     0.000,   1,1.0000,   0,0.0000,   0,0.0000,   0,0.0000
    88,'1 ',     0.000,     0.000,  9999.000, -9999.000,1.02700,     0,   100.000,   0.00000,   1.00000,   0.00000,   0.00000,1.00000,1,  100.0,     0.000,     0.000,   1,1.0000,   0,0.0000,   0,0.0000,   0,0.0000
    89,'1 ',     0.000,     0.000,  9999.000, -9999.000,1.00700,     0,   100.000,   0.00000,   1.00000,   0.00000,   0.00000,1.00000,1,  100.0,     0.000,     0.000,   1,1.0000,   0,0.0000,   0,0.0000,   0,0.0000
    90,'1 ',     0.000,     0.000,  9999.000, -9999.000,1.01500,     0,   100.000,   0.00000,   1.00000,   0.00000,   0.00000,1.00000,1,  100.0,     0.000,     0.000,   1,1.0000,   0,0.0000,   0,0.0000,   0,0.0000
    99,'1 ',     0.000,     0.000,  9999.000, -9999.000,0.99200,     0,   100.000,   0.00000,   1.00000,   0.00000,   0.00000,1.00000,1,  100.0,     0.000,     0.000,   1,1.0000,   0,0.0000,   0,0.0000,   0,0.0000
   100,'1 ',  2020.000,     0.000,  9999.000, -9999.000,1.01700,     0,   100.000,   0.00000,   1.00000,   0.00000,   0.00000,1.00000,1,  100.0,     0.000,     0.000,   1,1.0000,   0,0.0000,   0,0.0000,   0,0.0000
   101,'1 ',     0.000,     0.000,  9999.000, -9999.000,1.02600,     0,   100.000,   0.00000,   1.00000,   0.00000,   0.00000,1.00000,1,  100.0,     0.000,     0.000,   1,1.0000,   0,0.0000,   0,0.0000,   0,0.0000
   102,'1 ',     0.000,     0.000,  9999.000, -9999.000,1.03100,     0,   100.000,   0.00000,   1.00000,   0.00000,   0.00000,1.00000,1,  100.0,     0.000,     0.000,   1,1.0000,   0,0.0000,   0,0.0000,   0,0.0000
   103,'1 ',     0.000,     0.000,  9999.000, -9999.000,1.02600,     0,   100.000,   0.00000,   1.00000,   0.00000,   0.00000,1.00000,1,  100.0,     0.000,     0.000,   1,1.0000,   0,0.0000,   0,0.0000,   0,0.0000
   104,'1 ',  2202.000,     0.000,  9999.000, -9999.000,1.02000,     0,   100.000,   0.00000,   1.00000,   0.00000,   0.00000,1.00000,1,  100.0,     0.000,     0.000,   1,1.0000,   0,0.0000,   0,0.0000,   0,0.0000
   105,'1 ',     0.000,     0.000,  9999.000, -9999.000,0.99900,     0,   100.000,   0.00000,   1.00000,   0.00000,   0.00000,1.00000,1,  100.0,     0.000,     0.000,   1,1.0000,   0,0.0000,   0,0.0000,   0,0.0000
   107,'1 ',  2660.000,     0.000,  9999.000, -9999.000,1.00000,     0,   100.000,   0.00000,   1.00000,   0.00000,   0.00000,1.00000,1,  100.0,     0.000,     0.000,   1,1.0000,   0,0.0000,   0,0.0000,   0,0.0000
   108,'1 ',  2160.000,     0.000,  9999.000, -9999.000,0.98900,     0,   100.000,   0.00000,   1.00000,   0.00000,   0.00000,1.00000,1,  100.0,     0.000,     0.000,   1,1.0000,   0,0.0000,   0,0.0000,   0,0.0000
   109,'1 ',     0.000,     0.000,  9999.000, -9999.000,1.02200,     0,   100.000,   0.00000,   1.00000,   0.00000,   0.00000,1.00000,1,  100.0,     0.000,     0.000,   1,1.0000,   0,0.0000,   0,0.0000,   0,0.0000
   110,'1 ',     0.000,     0.000,  9999.000, -9999.000,1.01900,     0,   100.000,   0.00000,   1.00000,   0.00000,   0.00000,1.00000,1,  100.0,     0.000,     0.000,   1,1.0000,   0,0.0000,   0,0.0000,   0,0.0000
   111,'1 ',     0.000,     0.000,  9999.000, -9999.000,0.98900,     0,   100.000,   0.00000,   1.00000,   0.00000,   0.00000,1.00000,1,  100.0,     0.000,     0.000,   1,1.0000,   0,0.0000,   0,0.0000,   0,0.0000
   112,'1 ',     0.000,     0.000,  9999.000, -9999.000,1.01900,     0,   100.000,   0.00000,   1.00000,   0.00000,   0.00000,1.00000,1,  100.0,     0.000,     0.000,   1,1.0000,   0,0.0000,   0,0.0000,   0,0.0000
   113,'1 ',     0.000,     0.000,  9999.000, -9999.000,0.99000,     0,   100.000,   0.00000,   1.00000,   0.00000,   0.00000,1.00000,1,  100.0,     0.000,     0.000,   1,1.0000,   0,0.0000,   0,0.0000,   0,0.0000
   114,'1 ',     0.000,     0.000,  9999.000, -9999.000,1.02100,     0,   100.000,   0.00000,   1.00000,   0.00000,   0.00000,1.00000,1,  100.0,     0.000,     0.000,   1,1.0000,   0,0.0000,   0,0.0000,   0,0.0000
   115,'1 ',  2210.000,     0.000,  9999.000, -9999.000,1.00500,     0,   100.000,   0.00000,   1.00000,   0.00000,   0.00000,1.00000,1,  100.0,     0.000,     0.000,   1,1.0000,   0,0.0000,   0,0.0000,   0,0.0000
   116,'1 ',     0.000,     0.000,  9999.000, -9999.000,1.02700,     0,   100.000,   0.00000,   1.00000,   0.00000,   0.00000,1.00000,1,  100.0,     0.000,     0.000,   1,1.0000,   0,0.0000,   0,0.0000,   0,0.0000
   117,'1 ',  5010.000,     0.000,  9999.000, -9999.000,0.99700,     0,   100.000,   0.00000,   1.00000,   0.00000,   0.00000,1.00000,1,  100.0,     0.000,     0.000,   1,1.0000,   0,0.0000,   0,0.0000,   0,0.0000
   118,'1 ',  1352.000,     0.000,  9999.000, -9999.000,0.99700,     0,   100.000,   0.00000,   1.00000,   0.00000,   0.00000,1.00000,1,  100.0,     0.000,     0.000,   1,1.0000,   0,0.0000,   0,0.0000,   0,0.0000
   119,'1 ',  2026.000,     0.000,  9999.000, -9999.000,1.01700,     0,   100.000,   0.00000,   1.00000,   0.00000,   0.00000,1.00000,1,  100.0,     0.000,     0.000,   1,1.0000,   0,0.0000,   0,0.0000,   0,0.0000
   120,'1 ',  2222.000,     0.000,  9999.000, -9999.000,1.01000,     0,   100.000,   0.00000,   1.00000,   0.00000,   0.00000,1.00000,1,  100.0,     0.000,     0.000,   1,1.0000,   0,0.0000,   0,0.0000,   0,0.0000
   123,'1 ',     0.000,     0.000,  9999.000, -9999.000,1.01800,     0,   100.000,   0.00000,   1.00000,   0.00000,   0.00000,1.00000,1,  100.0,     0.000,     0.000,   1,1.0000,   0,0.0000,   0,0.0000,   0,0.0000
   125,'1 ',     0.000,     0.000,  9999.000, -9999.000,1.02200,     0,   100.000,   0.00000,   1.00000,   0.00000,   0.00000,1.00000,1,  100.0,     0.000,     0.000,   1,1.0000,   0,0.0000,   0,0.0000,   0,0.0000
   126,'1 ',  1200.000,     0.000,  9999.000, -9999.000,1.00000,     0,   100.000,   0.00000,   1.00000,   0.00000,   0.00000,1.00000,1,  100.0,     0.000,     0.000,   1,1.0000,   0,0.0000,   0,0.0000,   0,0.0000
   128,'1 ',  5339.000,     0.000,  9999.000, -9999.000,1.00900,     0,   100.000,   0.00000,   1.00000,   0.00000,   0.00000,1.00000,1,  100.0,     0.000,     0.000,   1,1.0000,   0,0.0000,   0,0.0000,   0,0.0000
   129,'1 ',     0.000,     0.000,  9999.000, -9999.000,1.02800,     0,   100.000,   0.00000,   1.00000,   0.00000,   0.00000,1.00000,1,  100.0,     0.000,     0.000,   1,1.0000,   0,0.0000,   0,0.0000,   0,0.0000
   130,'1 ',  2735.000,     0.000,  9999.000, -9999.000,0.99900,     0,   100.000,   0.00000,   1.00000,   0.00000,   0.00000,1.00000,1,  100.0,     0.000,     0.000,   1,1.0000,   0,0.0000,   0,0.0000,   0,0.0000
   132,'1 ',     0.000,     0.000,  9999.000, -9999.000,1.03200,     0,   100.000,   0.00000,   1.00000,   0.00000,   0.00000,1.00000,1,  100.0,     0.000,     0.000,   1,1.0000,   0,0.0000,   0,0.0000,   0,0.0000
   133,'1 ',     0.000,     0.000,  9999.000, -9999.000,1.01300,     0,   100.000,   0.00000,   1.00000,   0.00000,   0.00000,1.00000,1,  100.0,     0.000,     0.000,   1,1.0000,   0,0.0000,   0,0.0000,   0,0.0000
   135,'1 ',     0.000,     0.000,  9999.000, -9999.000,1.02000,     0,   100.000,   0.00000,   1.00000,   0.00000,   0.00000,1.00000,1,  100.0,     0.000,     0.000,   1,1.0000,   0,0.0000,   0,0.0000,   0,0.0000
   137,'1 ',     0.000,     0.000,  9999.000, -9999.000,1.03400,     0,   100.000,   0.00000,   1.00000,   0.00000,   0.00000,1.00000,1,  100.0,     0.000,     0.000,   1,1.0000,   0,0.0000,   0,0.0000,   0,0.0000
   138,'1 ',  2100.000,     0.000,  9999.000, -9999.000,1.00000,     0,   100.000,   0.00000,   1.00000,   0.00000,   0.00000,1.00000,1,  100.0,     0.000,     0.000,   1,1.0000,   0,0.0000,   0,0.0000,   0,0.0000
   139,'1 ',     0.000,     0.000,  9999.000, -9999.000,1.02900,     0,   100.000,   0.00000,   1.00000,   0.00000,   0.00000,1.00000,1,  100.0,     0.000,     0.000,   1,1.0000,   0,0.0000,   0,0.0000,   0,0.0000
   140,'1 ',  2151.000,     0.000,  9999.000, -9999.000,1.02300,     0,   100.000,   0.00000,   1.00000,   0.00000,   0.00000,1.00000,1,  100.0,     0.000,     0.000,   1,1.0000,   0,0.0000,   0,0.0000,   0,0.0000
0 / END OF GENERATOR DATA, BEGIN NON-TRANSFORMER BRANCH DATA
     4,      5,'1 ',   0.00000,   0.00011,   0.00000,    0.00,    0.00,    0.00,  0.00000,  0.00000,  0.00000,  0.00000,1,   0.00,   1,1.0000,   0,0.0000,   0,0.0000,   0,0.0000
     9,    -10,'1 ',   0.00000,   0.00011,   0.00000,    0.00,    0.00,    0.00,  0.00000,  0.00000,  0.00000,  0.00000,1,   0.00,   1,1.0000,   0,0.0000,   0,0.0000,   0,0.0000
    11,    102,'1 ',   0.00000,   0.00011,   0.00000,    0.00,    0.00,    0.00,  0.00000,  0.00000,  0.00000,  0.00000,1,   0.00,   1,1.0000,   0,0.0000,   0,0.0000,   0,0.0000
    12,    -14,'1 ',   0.00000,   0.00011,   0.00000,    0.00,    0.00,    0.00,  0.00000,  0.00000,  0.00000,  0.00000,1,   0.00,   1,1.0000,   0,0.0000,   0,0.0000,   0,0.0000
    15,    -16,'1 ',   0.00000,   0.00011,   0.00000,    0.00,    0.00,    0.00,  0.00000,  0.00000,  0.00000,  0.00000,1,   0.00,   1,1.0000,   0,0.0000,   0,0.0000,   0,0.0000
     1,     -3,'1 ',   0.00000,   0.00011,   0.00000,    0.00,    0.00,    0.00,  0.00000,  0.00000,  0.00000,  0.00000,1,   0.00,   1,1.0000,   0,0.0000,   0,0.0000,   0,0.0000
    17,     18,'1 ',   0.00000,   0.00011,   0.00000,    0.00,    0.00,    0.00,  0.00000,  0.00000,  0.00000,  0.00000,1,   0.00,   1,1.0000,   0,0.0000,   0,0.0000,   0,0.0000
     7,      8,'1 ',   0.00000,   0.00011,   0.00000,    0.00,    0.00,    0.00,  0.00000,  0.00000,  0.00000,  0.00000,1,   0.00,   1,1.0000,   0,0.0000,   0,0.0000,   0,0.0000
     6,     27,'1 ',   0.00000,   0.00011,   0.00000,    0.00,    0.00,    0.00,  0.00000,  0.00000,  0.00000,  0.00000,1,   0.00,   1,1.0000,   0,0.0000,   0,0.0000,   0,0.0000
    41,     51,'3 ',   0.01322,   0.13338,   0.00000,    0.00,    0.00,    0.00,  0.00000,  0.00000,  0.00000,  0.00000,1,   0.00,   1,1.0000,   0,0.0000,   0,0.0000,   0,0.0000
    21,    -29,'3 ',   0.00845,   0.09104,   0.00000,    0.00,    0.00,    0.00,  0.00000,  0.00000,  0.00000,  0.00000,1,   0.00,   1,1.0000,   0,0.0000,   0,0.0000,   0,0.0000
    30,    -46,'1 ',   0.00000,   0.04454,   0.00000,    0.00,    0.00,    0.00,  0.00000,  0.00000,  0.00000,  0.00000,1,   0.00,   1,1.0000,   0,0.0000,   0,0.0000,   0,0.0000
    31,    -47,'3 ',   0.00000,   0.02128,   0.00000,    0.00,    0.00,    0.00,  0.00000,  0.00000,  0.00000,  0.00000,1,   0.00,   1,1.0000,   0,0.0000,   0,0.0000,   0,0.0000
    21,    -42,'1 ',   0.00136,   0.01814,   0.00000,    0.00,    0.00,    0.00,  0.00000,  0.00000,  0.00000,  0.00000,1,   0.00,   1,1.0000,   0,0.0000,   0,0.0000,   0,0.0000
    23,    -36,'1 ',   0.00015,   0.02015,   0.00000,    0.00,    0.00,    0.00,  0.00000,  0.00000,  0.00000,  0.00000,1,   0.00,   1,1.0000,   0,0.0000,   0,0.0000,   0,0.0000
    23,    -42,'1 ',   0.00289,   0.03846,   0.00000,    0.00,    0.00,    0.00,  0.00000,  0.00000,  0.00000,  0.00000,1,   0.00,   1,1.0000,   0,0.0000,   0,0.0000,   0,0.0000
    24,    -49,'1 ',   0.00000,   0.02679,   0.01764,    0.00,    0.00,    0.00,  0.00000,  0.00000,  0.00000,  0.00000,1,   0.00,   1,1.0000,   0,0.0000,   0,0.0000,   0,0.0000
    38,     51,'3 ',   0.00307,   0.09007,   0.00000,    0.00,    0.00,    0.00,  0.00000,  0.00000,  0.00000,  0.00000,1,   0.00,   1,1.0000,   0,0.0000,   0,0.0000,   0,0.0000
    27,     44,'1 ',   0.00009,   0.00100,   0.11444,    0.00,    0.00,    0.00,  0.00000,  0.00000,  0.00000,  0.00000,1,   0.00,   1,1.0000,   0,0.0000,   0,0.0000,   0,0.0000
    27,     44,'2 ',   0.00009,   0.00100,   0.11444,    0.00,    0.00,    0.00,  0.00000,  0.00000,  0.00000,  0.00000,1,   0.00,   1,1.0000,   0,0.0000,   0,0.0000,   0,0.0000
    39,     46,'1 ',   0.00034,   0.00385,   0.00000,    0.00,    0.00,    0.00,  0.00000,  0.00000,  0.00000,  0.00000,1,   0.00,   1,1.0000,   0,0.0000,   0,0.0000,   0,0.0000
    25,     40,'1 ',   0.01213,   0.12108,   0.00000,    0.00,    0.00,    0.00,  0.00000,  0.00000,  0.00000,  0.00000,1,   0.00,   1,1.0000,   0,0.0000,   0,0.0000,   0,0.0000
    28,     52,'1 ',   0.00036,   0.00444,   0.50362,    0.00,    0.00,    0.00,  0.00000,  0.00000,  0.00000,  0.00000,1,   0.00,   1,1.0000,   0,0.0000,   0,0.0000,   0,0.0000
    28,     52,'2 ',   0.00036,   0.00444,   0.50362,    0.00,    0.00,    0.00,  0.00000,  0.00000,  0.00000,  0.00000,1,   0.00,   1,1.0000,   0,0.0000,   0,0.0000,   0,0.0000
    18,     53,'1 ',   0.00009,   0.00190,   0.24232,    0.00,    0.00,    0.00,  0.00000,  0.00000,  0.00000,  0.00000,1,   0.00,   1,1.0000,   0,0.0000,   0,0.0000,   0,0.0000
    18,     53,'2 ',   0.00009,   0.00190,   0.24232,    0.00,    0.00,    0.00,  0.00000,  0.00000,  0.00000,  0.00000,1,   0.00,   1,1.0000,   0,0.0000,   0,0.0000,   0,0.0000
    21,    -29,'1 ',   0.00063,   0.00925,   1.06854,    0.00,    0.00,    0.00,  0.00000,  0.00000,  0.00000,  0.00000,1,   0.00,   1,1.0000,   0,0.0000,   0,0.0000,   0,0.0000
    21,    -29,'2 ',   0.00063,   0.00925,   1.06854,    0.00,    0.00,    0.00,  0.00000,  0.00000,  0.00000,  0.00000,1,   0.00,   1,1.0000,   0,0.0000,   0,0.0000,   0,0.0000
    29,     36,'1 ',   0.00045,   0.00553,   0.62952,    0.00,    0.00,    0.00,  0.00000,  0.00000,  0.00000,  0.00000,1,   0.00,   1,1.0000,   0,0.0000,   0,0.0000,   0,0.0000
    29,     36,'2 ',   0.00045,   0.00553,   0.62952,    0.00,    0.00,    0.00,  0.00000,  0.00000,  0.00000,  0.00000,1,   0.00,   1,1.0000,   0,0.0000,   0,0.0000,   0,0.0000
    29,     47,'1 ',   0.00027,   0.00372,   0.42754,    0.00,    0.00,    0.00,  0.00000,  0.00000,  0.00000,  0.00000,1,   0.00,   1,1.0000,   0,0.0000,   0,0.0000,   0,0.0000
    29,     47,'2 ',   0.00027,   0.00372,   0.42754,    0.00,    0.00,    0.00,  0.00000,  0.00000,  0.00000,  0.00000,1,   0.00,   1,1.0000,   0,0.0000,   0,0.0000,   0,0.0000
    23,    -30,'1 ',   0.00054,   0.00553,   0.62952,    0.00,    0.00,    0.00,  0.00000,  0.00000,  0.00000,  0.00000,1,   0.00,   1,1.0000,   0,0.0000,   0,0.0000,   0,0.0000
    31,     36,'1 ',   0.00045,   0.00580,   0.67496,    0.00,    0.00,    0.00,  0.00000,  0.00000,  0.00000,  0.00000,1,   0.00,   1,1.0000,   0,0.0000,   0,0.0000,   0,0.0000
    31,     36,'2 ',   0.00045,   0.00580,   0.67496,    0.00,    0.00,    0.00,  0.00000,  0.00000,  0.00000,  0.00000,1,   0.00,   1,1.0000,   0,0.0000,   0,0.0000,   0,0.0000
    23,    -31,'1 ',   0.00054,   0.00517,   0.58388,    0.00,    0.00,    0.00,  0.00000,  0.00000,  0.00000,  0.00000,1,   0.00,   1,1.0000,   0,0.0000,   0,0.0000,   0,0.0000
    23,    -31,'2 ',   0.00054,   0.00517,   0.58388,    0.00,    0.00,    0.00,  0.00000,  0.00000,  0.00000,  0.00000,1,   0.00,   1,1.0000,   0,0.0000,   0,0.0000,   0,0.0000
    31,     39,'1 ',   0.00018,   0.00245,   0.27474,    0.00,    0.00,    0.00,  0.00000,  0.00000,  0.00000,  0.00000,1,   0.00,   1,1.0000,   0,0.0000,   0,0.0000,   0,0.0000
    31,     39,'2 ',   0.00018,   0.00245,   0.27474,    0.00,    0.00,    0.00,  0.00000,  0.00000,  0.00000,  0.00000,1,   0.00,   1,1.0000,   0,0.0000,   0,0.0000,   0,0.0000
    34,     53,'1 ',   0.00018,   0.00254,   0.29238,    0.00,    0.00,    0.00,  0.00000,  0.00000,  0.00000,  0.00000,1,   0.00,   1,1.0000,   0,0.0000,   0,0.0000,   0,0.0000
    34,     53,'2 ',   0.00018,   0.00254,   0.29238,    0.00,    0.00,    0.00,  0.00000,  0.00000,  0.00000,  0.00000,1,   0.00,   1,1.0000,   0,0.0000,   0,0.0000,   0,0.0000
    20,     26,'1 ',   0.00036,   0.00426,   0.49216,    0.00,    0.00,    0.00,  0.00000,  0.00000,  0.00000,  0.00000,1,   0.00,   1,1.0000,   0,0.0000,   0,0.0000,   0,0.0000
    20,     26,'2 ',   0.00036,   0.00426,   0.49216,    0.00,    0.00,    0.00,  0.00000,  0.00000,  0.00000,  0.00000,1,   0.00,   1,1.0000,   0,0.0000,   0,0.0000,   0,0.0000
    32,    -35,'1 ',   0.00009,   0.00254,   0.43726,    0.00,    0.00,    0.00,  0.00000,  0.00000,  0.00000,  0.00000,1,   0.00,   1,1.0000,   0,0.0000,   0,0.0000,   0,0.0000
    32,    -35,'2 ',   0.00009,   0.00254,   0.43726,    0.00,    0.00,    0.00,  0.00000,  0.00000,  0.00000,  0.00000,1,   0.00,   1,1.0000,   0,0.0000,   0,0.0000,   0,0.0000
    22,     28,'1 ',   0.00027,   0.00299,   0.34332,    0.00,    0.00,    0.00,  0.00000,  0.00000,  0.00000,  0.00000,1,   0.00,   1,1.0000,   0,0.0000,   0,0.0000,   0,0.0000
    22,     28,'2 ',   0.00027,   0.00299,   0.34332,    0.00,    0.00,    0.00,  0.00000,  0.00000,  0.00000,  0.00000,1,   0.00,   1,1.0000,   0,0.0000,   0,0.0000,   0,0.0000
    22,     29,'1 ',   0.00091,   0.01333,   1.54108,    0.00,    0.00,    0.00,  0.00000,  0.00000,  0.00000,  0.00000,1,   0.00,   1,1.0000,   0,0.0000,   0,0.0000,   0,0.0000
    22,     29,'2 ',   0.00091,   0.01333,   1.54108,    0.00,    0.00,    0.00,  0.00000,  0.00000,  0.00000,  0.00000,1,   0.00,   1,1.0000,   0,0.0000,   0,0.0000,   0,0.0000
    29,    -37,'1 ',   0.00018,   0.00172,   0.19470,    0.00,    0.00,    0.00,  0.00000,  0.00000,  0.00000,  0.00000,1,   0.00,   1,1.0000,   0,0.0000,   0,0.0000,   0,0.0000
    36,    -37,'1 ',   0.00018,   0.00345,   0.40064,    0.00,    0.00,    0.00,  0.00000,  0.00000,  0.00000,  0.00000,1,   0.00,   1,1.0000,   0,0.0000,   0,0.0000,   0,0.0000
    36,    -37,'2 ',   0.00018,   0.00345,   0.40064,    0.00,    0.00,    0.00,  0.00000,  0.00000,  0.00000,  0.00000,1,   0.00,   1,1.0000,   0,0.0000,   0,0.0000,   0,0.0000
    24,     33,'1 ',   0.00036,   0.00517,   0.59536,    0.00,    0.00,    0.00,  0.00000,  0.00000,  0.00000,  0.00000,1,   0.00,   1,1.0000,   0,0.0000,   0,0.0000,   0,0.0000
    24,     33,'2 ',   0.00036,   0.00517,   0.59536,    0.00,    0.00,    0.00,  0.00000,  0.00000,  0.00000,  0.00000,1,   0.00,   1,1.0000,   0,0.0000,   0,0.0000,   0,0.0000
    24,     48,'1 ',   0.00027,   0.00308,   0.35478,    0.00,    0.00,    0.00,  0.00000,  0.00000,  0.00000,  0.00000,1,   0.00,   1,1.0000,   0,0.0000,   0,0.0000,   0,0.0000
    24,     48,'2 ',   0.00027,   0.00308,   0.35478,    0.00,    0.00,    0.00,  0.00000,  0.00000,  0.00000,  0.00000,1,   0.00,   1,1.0000,   0,0.0000,   0,0.0000,   0,0.0000
    24,    -38,'1 ',   0.00045,   0.00599,   0.68686,    0.00,    0.00,    0.00,  0.00000,  0.00000,  0.00000,  0.00000,1,   0.00,   1,1.0000,   0,0.0000,   0,0.0000,   0,0.0000
    24,    -38,'2 ',   0.00045,   0.00599,   0.68686,    0.00,    0.00,    0.00,  0.00000,  0.00000,  0.00000,  0.00000,1,   0.00,   1,1.0000,   0,0.0000,   0,0.0000,   0,0.0000
    38,     43,'1 ',   0.00073,   0.00989,   1.14748,    0.00,    0.00,    0.00,  0.00000,  0.00000,  0.00000,  0.00000,1,   0.00,   1,1.0000,   0,0.0000,   0,0.0000,   0,0.0000
    38,     43,'2 ',   0.00073,   0.00989,   1.14748,    0.00,    0.00,    0.00,  0.00000,  0.00000,  0.00000,  0.00000,1,   0.00,   1,1.0000,   0,0.0000,   0,0.0000,   0,0.0000
    28,    -40,'1 ',   0.00036,   0.00372,   0.42358,    0.00,    0.00,    0.00,  0.00000,  0.00000,  0.00000,  0.00000,1,   0.00,   1,1.0000,   0,0.0000,   0,0.0000,   0,0.0000
    28,    -40,'2 ',   0.00027,   0.00372,   0.42358,    0.00,    0.00,    0.00,  0.00000,  0.00000,  0.00000,  0.00000,1,   0.00,   1,1.0000,   0,0.0000,   0,0.0000,   0,0.0000
    33,    -40,'1 ',   0.00018,   0.00245,   0.27474,    0.00,    0.00,    0.00,  0.00000,  0.00000,  0.00000,  0.00000,1,   0.00,   1,1.0000,   0,0.0000,   0,0.0000,   0,0.0000
    33,    -40,'2 ',   0.00018,   0.00245,   0.27474,    0.00,    0.00,    0.00,  0.00000,  0.00000,  0.00000,  0.00000,1,   0.00,   1,1.0000,   0,0.0000,   0,0.0000,   0,0.0000
    20,    -43,'1 ',   0.00036,   0.00481,   0.54948,    0.00,    0.00,    0.00,  0.00000,  0.00000,  0.00000,  0.00000,1,   0.00,   1,1.0000,   0,0.0000,   0,0.0000,   0,0.0000
    20,    -43,'2 ',   0.00036,   0.00481,   0.54948,    0.00,    0.00,    0.00,  0.00000,  0.00000,  0.00000,  0.00000,1,   0.00,   1,1.0000,   0,0.0000,   0,0.0000,   0,0.0000
    44,     46,'1 ',   0.00018,   0.00263,   0.29768,    0.00,    0.00,    0.00,  0.00000,  0.00000,  0.00000,  0.00000,1,   0.00,   1,1.0000,   0,0.0000,   0,0.0000,   0,0.0000
    44,     46,'2 ',   0.00018,   0.00263,   0.29768,    0.00,    0.00,    0.00,  0.00000,  0.00000,  0.00000,  0.00000,1,   0.00,   1,1.0000,   0,0.0000,   0,0.0000,   0,0.0000
    43,    -45,'1 ',   0.00045,   0.00635,   0.73118,    0.00,    0.00,    0.00,  0.00000,  0.00000,  0.00000,  0.00000,1,   0.00,   1,1.0000,   0,0.0000,   0,0.0000,   0,0.0000
    43,    -45,'2 ',   0.00045,   0.00635,   0.73118,    0.00,    0.00,    0.00,  0.00000,  0.00000,  0.00000,  0.00000,1,   0.00,   1,1.0000,   0,0.0000,   0,0.0000,   0,0.0000
    26,     44,'1 ',   0.00045,   0.00635,   0.72126,    0.00,    0.00,    0.00,  0.00000,  0.00000,  0.00000,  0.00000,1,   0.00,   1,1.0000,   0,0.0000,   0,0.0000,   0,0.0000
    26,     44,'2 ',   0.00027,   0.00363,   0.41212,    0.00,    0.00,    0.00,  0.00000,  0.00000,  0.00000,  0.00000,1,   0.00,   1,1.0000,   0,0.0000,   0,0.0000,   0,0.0000
    31,    -47,'1 ',   0.00009,   0.00163,   0.27982,    0.00,    0.00,    0.00,  0.00000,  0.00000,  0.00000,  0.00000,1,   0.00,   1,1.0000,   0,0.0000,   0,0.0000,   0,0.0000
    31,    -47,'2 ',   0.00009,   0.00163,   0.27982,    0.00,    0.00,    0.00,  0.00000,  0.00000,  0.00000,  0.00000,1,   0.00,   1,1.0000,   0,0.0000,   0,0.0000,   0,0.0000
    43,    -48,'1 ',   0.00045,   0.00544,   0.61806,    0.00,    0.00,    0.00,  0.00000,  0.00000,  0.00000,  0.00000,1,   0.00,   1,1.0000,   0,0.0000,   0,0.0000,   0,0.0000
    43,    -48,'2 ',   0.00045,   0.00544,   0.61806,    0.00,    0.00,    0.00,  0.00000,  0.00000,  0.00000,  0.00000,1,   0.00,   1,1.0000,   0,0.0000,   0,0.0000,   0,0.0000
    49,     54,'1 ',   0.00027,   0.00390,   0.45004,    0.00,    0.00,    0.00,  0.00000,  0.00000,  0.00000,  0.00000,1,   0.00,   1,1.0000,   0,0.0000,   0,0.0000,   0,0.0000
    49,     54,'2 ',   0.00027,   0.00390,   0.45004,    0.00,    0.00,    0.00,  0.00000,  0.00000,  0.00000,  0.00000,1,   0.00,   1,1.0000,   0,0.0000,   0,0.0000,   0,0.0000
    28,    -50,'1 ',   0.00100,   0.01034,   1.16754,    0.00,    0.00,    0.00,  0.00000,  0.00000,  0.00000,  0.00000,1,   0.00,   1,1.0000,   0,0.0000,   0,0.0000,   0,0.0000
    50,     52,'1 ',   0.00082,   0.00816,   0.92720,    0.00,    0.00,    0.00,  0.00000,  0.00000,  0.00000,  0.00000,1,   0.00,   1,1.0000,   0,0.0000,   0,0.0000,   0,0.0000
    50,     52,'2 ',   0.00082,   0.00816,   0.92720,    0.00,    0.00,    0.00,  0.00000,  0.00000,  0.00000,  0.00000,1,   0.00,   1,1.0000,   0,0.0000,   0,0.0000,   0,0.0000
    38,    -51,'1 ',   0.00063,   0.00871,   0.99600,    0.00,    0.00,    0.00,  0.00000,  0.00000,  0.00000,  0.00000,1,   0.00,   1,1.0000,   0,0.0000,   0,0.0000,   0,0.0000
    38,    -51,'2 ',   0.00063,   0.00871,   0.99600,    0.00,    0.00,    0.00,  0.00000,  0.00000,  0.00000,  0.00000,1,   0.00,   1,1.0000,   0,0.0000,   0,0.0000,   0,0.0000
    35,    -52,'1 ',   0.00009,   0.00254,   0.43726,    0.00,    0.00,    0.00,  0.00000,  0.00000,  0.00000,  0.00000,1,   0.00,   1,1.0000,   0,0.0000,   0,0.0000,   0,0.0000
    35,    -52,'2 ',   0.00009,   0.00254,   0.43726,    0.00,    0.00,    0.00,  0.00000,  0.00000,  0.00000,  0.00000,1,   0.00,   1,1.0000,   0,0.0000,   0,0.0000,   0,0.0000
     8,    -52,'1 ',   0.00009,   0.00154,   0.17176,    0.00,    0.00,    0.00,  0.00000,  0.00000,  0.00000,  0.00000,1,   0.00,   1,1.0000,   0,0.0000,   0,0.0000,   0,0.0000
     8,    -52,'2 ',   0.00018,   0.00154,   0.17176,    0.00,    0.00,    0.00,  0.00000,  0.00000,  0.00000,  0.00000,1,   0.00,   1,1.0000,   0,0.0000,   0,0.0000,   0,0.0000
     8,     35,'1 ',   0.00027,   0.00426,   0.49502,    0.00,    0.00,    0.00,  0.00000,  0.00000,  0.00000,  0.00000,1,   0.00,   1,1.0000,   0,0.0000,   0,0.0000,   0,0.0000
     8,     35,'2 ',   0.00027,   0.00426,   0.49502,    0.00,    0.00,    0.00,  0.00000,  0.00000,  0.00000,  0.00000,1,   0.00,   1,1.0000,   0,0.0000,   0,0.0000,   0,0.0000
     8,     47,'1 ',   0.00036,   0.00499,   0.57242,    0.00,    0.00,    0.00,  0.00000,  0.00000,  0.00000,  0.00000,1,   0.00,   1,1.0000,   0,0.0000,   0,0.0000,   0,0.0000
     8,     47,'2 ',   0.00045,   0.00508,   0.57242,    0.00,    0.00,    0.00,  0.00000,  0.00000,  0.00000,  0.00000,1,   0.00,   1,1.0000,   0,0.0000,   0,0.0000,   0,0.0000
    33,    -53,'1 ',   0.00027,   0.00435,   0.50626,    0.00,    0.00,    0.00,  0.00000,  0.00000,  0.00000,  0.00000,1,   0.00,   1,1.0000,   0,0.0000,   0,0.0000,   0,0.0000
    33,    -53,'2 ',   0.00027,   0.00435,   0.50626,    0.00,    0.00,    0.00,  0.00000,  0.00000,  0.00000,  0.00000,1,   0.00,   1,1.0000,   0,0.0000,   0,0.0000,   0,0.0000
    45,    -54,'1 ',   0.00036,   0.00753,   1.31176,    0.00,    0.00,    0.00,  0.00000,  0.00000,  0.00000,  0.00000,1,   0.00,   1,1.0000,   0,0.0000,   0,0.0000,   0,0.0000
    45,    -54,'2 ',   0.00036,   0.00753,   1.31176,    0.00,    0.00,    0.00,  0.00000,  0.00000,  0.00000,  0.00000,1,   0.00,   1,1.0000,   0,0.0000,   0,0.0000,   0,0.0000
    48,    -54,'1 ',   0.00018,   0.00245,   0.27474,    0.00,    0.00,    0.00,  0.00000,  0.00000,  0.00000,  0.00000,1,   0.00,   1,1.0000,   0,0.0000,   0,0.0000,   0,0.0000
...